
Warning: Missing .control statement!
    This may cause subsequent errors.

Warning: misplaced .endc card

Circuit: *

Doing analysis at TEMP = 27.000000 and TNOM = 27.000000


Initial Transient Solution
--------------------------

Node                                   Voltage
----                                   -------
22                                           0
23                                -3.85186e-35
1                                 -7.99838e-20
3                                 -7.99838e-20
2                                 -1.59968e-19
4                                 -1.59414e-19
5                                 -3.14721e-19
6                                 -6.84804e-19
7                                  -3.8678e-19
8                                 -1.75269e-19
9                                  1.57974e-19
10                                -1.05856e-19
11                                 1.90757e-19
12                                -2.31754e-20
13                                -2.21639e-19
14                                -9.39369e-20
15                                -1.70417e-19
16                                 -3.8978e-19
17                                -8.42247e-20
18                                -1.20304e-19
19                                 5.78117e-20
20                                -2.28254e-19
21                                 8.73269e-20
e1#branch                         -4.81482e-35
vs#branch                         -1.92593e-35


No. of Data Rows : 14009
ymax                =  1.143572e+01 at=  1.352140e-01
ymin                =  1.143483e+01 at=  1.472404e-02
yavg                =  1.143555e+01 from=  1.000000e-02 to=  1.400000e-01
********************************************
MAX and MIN
********************************************
op_MAXMIN_TAB
ymax = 1.143572e+01
ymin = 1.143483e+01
yavg = 1.143555e+01
op_MAXMIN_END
Doing analysis at TEMP = 27.000000 and TNOM = 27.000000


No. of Data Rows : 1
	Node                                  Voltage
	----                                  -------
	----	-------
	V(21)                            8.732691e-20
	V(20)                            -2.28254e-19
	V(19)                            5.781167e-20
	V(18)                            -1.20304e-19
	V(17)                            -8.42247e-20
	V(16)                            -3.89780e-19
	V(15)                            -1.70417e-19
	V(14)                            -9.39369e-20
	V(13)                            -2.21639e-19
	V(12)                            -2.31754e-20
	V(11)                            1.907572e-19
	V(10)                            -1.05856e-19
	V(9)                             1.579737e-19
	V(8)                             -1.75269e-19
	V(7)                             -3.86780e-19
	V(6)                             -6.84804e-19
	V(5)                             -3.14721e-19
	V(4)                             -1.59414e-19
	V(2)                             -1.59968e-19
	V(3)                             -7.99838e-20
	V(1)                             -7.99838e-20
	V(23)                            -3.85186e-35
	V(22)                            0.000000e+00

	Source	Current
	------	-------

	@r3[i]                           -3.25607e-27
	@c1[i]                           0.000000e+00
	@r1[i]                           -5.24484e-25
	@d23[id]                         8.732691e-32
	@d22[id]                         -3.15581e-31
	@d21[id]                         2.860661e-31
	@d20[id]                         -1.78116e-31
	@d19[id]                         3.607956e-32
	@d18[id]                         -3.05555e-31
	@d17[id]                         2.193625e-31
	@d16[id]                         7.648020e-32
	@d15[id]                         -1.27702e-31
	@d14[id]                         1.984634e-31
	@d13[id]                         2.139327e-31
	@d12[id]                         -2.96614e-31
	@d11[id]                         2.638301e-31
	@d10[id]                         -3.33243e-31
	@d9[id]                          -2.11511e-31
	@d8[id]                          -2.98024e-31
	@d7[id]                          3.700836e-31
	@d6[id]                          1.553066e-31
	@d4[id]                          7.998380e-32
	@d3[id]                          7.998380e-32
	@d2[id]                          7.998380e-32
	@d1[id]                          7.998380e-32
	@f1[i]                           -1.92593e-35
	@rs[i]                           1.925930e-35
	vs#branch                        -1.92593e-35
	e1#branch                        -4.81482e-35

 Capacitor models (Fixed capacitor)
      model                     C

        cap                     0
         cj                     0
       cjsw                     0
       defw                 1e-05
       defl                     0
     narrow                     0
      short                     0
        del                     0
        tc1                     0
        tc2                     0
         di                     0
      thick                     0
     bv_max                 1e+99

 Diode models (Junction Diode model)
      model               default

      level                     1
         is                 1e-14
        jsw                     0
         rs                     0
        trs                     0
       trs2                     0
          n                     1
         ns                     1
         tt                     0
       ttt1                     0
       ttt2                     0
        cjo                     0
         vj                     1
          m                   0.5
        tm1                     0
        tm2                     0
        cjp                     0
        php                     1
       mjsw                  0.33
        ikf                     0
        ikr                     0
        nbv                     1
       area                     1
         pj                     0
       tlev                     0
      tlevc                     0
         eg                  1.11
        xti                     3
        cta                     0
        ctp                     0
        tpb                     0
       tphp                     0
       jtun                     0
     jtunsw                     0
       ntun                    30
     xtitun                     3
        keg                     1
         kf                     0
         af                     1
         fc                   0.5
        fcs                   0.5
         bv                     0
        ibv                 0.001
        tcv                     0
     fv_max                 1e+99
     bv_max                 1e+99
        isr                 1e-14
         nr                     1

 Resistor models (Simple linear resistor)
      model                     R

        rsh                     0
     narrow                     0
      short                     0
        tc1                     0
        tc2                     0
        tce                     0
       defw                 1e-05
          l                 1e-05
         kf                     0
         af                     0
          r                     0
     bv_max                 1e+99
         lf                     1
         wf                     1
         ef                     1

 Capacitor: Fixed capacitor
     device                    c1
      model                     C
capacitance              0.000305
      dtemp                     0
     bv_max                 1e+99
          i                     0
          p                    -0

 CCCS: Current controlled current source
     device                    f1
          m                     0
          i          -1.92593e-35
          v           3.85186e-35
          p          -7.41841e-70

 Diode: Junction Diode model
     device                   d23                   d22                   d21
      model               default               default               default
         vd           8.73269e-20          -3.15581e-19           2.86066e-19
         id           8.73269e-32          -3.15581e-31           2.86066e-31
         gd           1.38662e-12           1.38662e-12           1.38662e-12
         cd                     0                     0                     0

 Diode: Junction Diode model
     device                   d20                   d19                   d18
      model               default               default               default
         vd          -1.78116e-19           3.60796e-20          -3.05555e-19
         id          -1.78116e-31           3.60796e-32          -3.05555e-31
         gd           1.38662e-12           1.38662e-12           1.38662e-12
         cd                     0                     0                     0

 Diode: Junction Diode model
     device                   d17                   d16                   d15
      model               default               default               default
         vd           2.19363e-19           7.64802e-20          -1.27702e-19
         id           2.19363e-31           7.64802e-32          -1.27702e-31
         gd           1.38662e-12           1.38662e-12           1.38662e-12
         cd                     0                     0                     0

 Diode: Junction Diode model
     device                   d14                   d13                   d12
      model               default               default               default
         vd           1.98463e-19           2.13933e-19          -2.96614e-19
         id           1.98463e-31           2.13933e-31          -2.96614e-31
         gd           1.38662e-12           1.38662e-12           1.38662e-12
         cd                     0                     0                     0

 Diode: Junction Diode model
     device                   d11                   d10                    d9
      model               default               default               default
         vd            2.6383e-19          -3.33243e-19          -2.11511e-19
         id            2.6383e-31          -3.33243e-31          -2.11511e-31
         gd           1.38662e-12           1.38662e-12           1.38662e-12
         cd                     0                     0                     0

 Diode: Junction Diode model
     device                    d8                    d7                    d6
      model               default               default               default
         vd          -2.98024e-19           3.70084e-19           1.55307e-19
         id          -2.98024e-31           3.70084e-31           1.55307e-31
         gd           1.38662e-12           1.38662e-12           1.38662e-12
         cd                     0                     0                     0

 Diode: Junction Diode model
     device                    d4                    d3                    d2
      model               default               default               default
         vd           7.99838e-20           7.99838e-20           7.99838e-20
         id           7.99838e-32           7.99838e-32           7.99838e-32
         gd           1.38662e-12           1.38662e-12           1.38662e-12
         cd                     0                     0                     0

 Diode: Junction Diode model
     device                    d1
      model               default
         vd           7.99838e-20
         id           7.99838e-32
         gd           1.38662e-12
         cd                     0

 Resistor: Simple linear resistor
     device                    r3                    r1                    rs
      model                     R                     R                     R
 resistance                170000                305000                     2
         ac                170000                305000                     2
      dtemp                     0                     0                     0
     bv_max                 1e+99                 1e+99                 1e+99
      noisy                     1                     1                     1
          i          -3.25607e-27          -5.24484e-25           1.92593e-35
          p           1.80234e-48           8.39004e-44           7.41841e-70

 VCVS: Voltage controlled voltage source
     device                    e1
          i          -4.81482e-35
          v          -1.20371e-35
          p           5.79563e-70

 Vsource: Independent voltage source
     device                    vs
         dc                     0
      acmag                     0
      pulse                     0
                              230
                               50
        sin                     0
                              230
                               50
        exp                     0
                              230
                               50
        pwl                     0
                              230
                               50
       sffm                     0
                              230
                               50
         am                     0
                              230
                               50
    trnoise                     0
                              230
                               50
   trrandom                     0
                              230
                               50
          i          -1.92593e-35
          p                     0


Total analysis time (seconds) = 0.48

Total elapsed time (seconds) = 0.516 

Total DRAM available = 5543.898 MB.
DRAM currently available = 3129.859 MB.
Total ngspice program size =   32.898 MB.
Resident set size =   18.949 MB.
Shared ngspice pages =    8.039 MB.
Text (code) pages =    5.070 MB.
Stack = 0 bytes.
Library pages =   13.156 MB.

